grids/dgs/dgs/IEEE_14.dgs
********************************************************************************
*
* DIgSILENT (R) DGS Export V1.5.3
* Copyright (C) DIgSILENT GmbH 2017. All rights reserved.
*
* DIgSILENT (C) PowerFactory V15.1.7
*
* Date:     01/22/2017 15:12
* Project:  14 Bus System (Study Case: 01 - Load Flow Case Original Grid)
*
********************************************************************************


$$General;ID(a:40);Descr(a:40);Val(a:40)
********************************************************************************
*  General Information
*
*  ID: Unique identifier for DGS file
*  Descr: Setting
*  Val: Value
********************************************************************************
  1;Version;5.0


$$ElmLne;ID(a:40);loc_name(a:40);fold_id(p);typ_id(p);dline(r);chr_name(a:20)
********************************************************************************
*  Line
*
*  ID: Unique identifier for DGS file
*  loc_name: Name
*  fold_id: In Folder
*  typ_id: Type in TypLne,TypTow,TypGeo,TypCabsys
*  dline: Parameters: Length of Line in km
*  chr_name: Characteristic Name
********************************************************************************
  2;Line_0001_0002/1;29;288;1;
  3;Line_0001_0002/2;29;288;1;
  4;Line_0001_0005;29;289;1;
  5;Line_0002_0003;29;290;1;
  6;Line_0002_0004;29;291;1;
  7;Line_0002_0005;29;292;1;
  8;Line_0003_0004;29;293;1;
  9;Line_0004_0005;29;294;1;
  10;Line_0006_0011;29;295;1;
  11;Line_0006_0012;29;296;1;
  12;Line_0006_0013;29;297;1;
  13;Line_0009_0010;29;298;1;
  14;Line_0009_0014;29;299;1;
  15;Line_0010_0011;29;300;1;
  16;Line_0012_0013;29;301;1;
  17;Line_0013_0014;29;302;1;


$$ElmLod;ID(a:40);loc_name(a:40);fold_id(p);typ_id(p);chr_name(a:20);plini(r);qlini(r);scale0(r)
********************************************************************************
*  General Load
*
*  ID: Unique identifier for DGS file
*  loc_name: Name
*  fold_id: In Folder
*  typ_id: Type in TypLod,TypLodind
*  chr_name: Characteristic Name
*  plini: Operating Point: Active Power in MW
*  qlini: Operating Point: Reactive Power in Mvar
*  scale0: Operating Point: Scaling Factor
********************************************************************************
  18;Load_0002;29;;;21.7;12.7;1
  19;Load_0003;29;;;94.2;19;1
  20;Load_0004;29;;;47.8;-3.9;1
  21;Load_0005;29;;;7.6;1.6;1
  22;Load_0006;29;;;11.2;7.5;1
  23;Load_0009;29;;;29.5;16.6;1
  24;Load_0010;29;;;9;5.8;1
  25;Load_0011;29;;;3.5;1.8;1
  26;Load_0012;29;;;6.1;1.6;1
  27;Load_0013;29;;;13.5;5.8;1
  28;Load_0014;29;;;14.9;5;1


$$ElmNet;ID(a:40);loc_name(a:40);fold_id(p);frnom(r)
********************************************************************************
*  Grid
*
*  ID: Unique identifier for DGS file
*  loc_name: Name
*  fold_id: In Folder
*  frnom: Nominal Frequency in Hz
********************************************************************************
  29;Grid;;60


$$ElmShnt;ID(a:40);loc_name(a:40);fold_id(p);chr_name(a:20);shtype(i);ushnm(r);qcapn(r);ncapx(i);ncapa(i);outserv(i)
********************************************************************************
*  Shunt/Filter
*
*  ID: Unique identifier for DGS file
*  loc_name: Name
*  fold_id: In Folder
*  chr_name: Characteristic Name
*  shtype: Shunt Type
*  ushnm: Nominal Voltage in kV
*  qcapn: Design Parameter (per Step): Rated Reactive Power, C in Mvar
*  ncapx: Controller: Max. No. of Steps
*  ncapa: Controller: Act.No. of Step
*  outserv: Out of Service
********************************************************************************
  30;Shnt_0009;29;;2;33;19;1;1;0


$$ElmSym;ID(a:40);loc_name(a:40);fold_id(p);typ_id(p);ngnum(i);i_mot(i);chr_name(a:20);outserv(i);pgini(r);qgini(r);usetp(r);iv_mode(i);q_min(r);q_max(r)
********************************************************************************
*  Synchronous Machine
*
*  ID: Unique identifier for DGS file
*  loc_name: Name
*  fold_id: In Folder
*  typ_id: Type in TypSym
*  ngnum: Number of: parallel Machines
*  i_mot: Generator/Motor
*  chr_name: Characteristic Name
*  outserv: Out of Service
*  pgini: Dispatch: Active Power in MW
*  qgini: Dispatch: Reactive Power in Mvar
*  usetp: Dispatch: Voltage in p.u.
*  iv_mode: Mode of Local Voltage Controller
*  q_min: Reactive Power Operational Limits: Min. in p.u.
*  q_max: Reactive Power Operational Limits: Max. in p.u.
********************************************************************************
  31;Gen_0001;29;303;1;0;;0;232.4;-16.9;1.06;1;-0.4;0.75
  32;Gen_0002;29;304;1;0;;0;40;42.4;1.045;1;-0.4;0.5
  33;Gen_0003;29;305;1;0;;0;0;23.4;1.01;1;0;0.4
  34;Gen_0006;29;306;1;0;;0;0;12.2;1.07;1;-0.06;0.24
  35;Gen_0008;29;307;1;0;;0;0;17.4;1.09;1;-0.06;0.24


$$ElmTerm;ID(a:40);loc_name(a:40);fold_id(p);typ_id(p);iUsage(i);uknom(r);chr_name(a:20);outserv(i)
********************************************************************************
*  Terminal
*
*  ID: Unique identifier for DGS file
*  loc_name: Name
*  fold_id: In Folder
*  typ_id: Type in TypBar
*  iUsage: Usage:Busbar:Junction Node:Internal Node
*  uknom: Nominal Voltage: Line-Line in kV
*  chr_name: Characteristic Name
*  outserv: Out of Service
********************************************************************************
  36;Bus_0001;29;;0;132;;0
  37;Bus_0002;29;;0;132;;0
  38;Bus_0003;29;;0;132;;0
  39;Bus_0004;29;;0;132;;0
  40;Bus_0005;29;;0;132;;0
  41;Bus_0006;29;;0;33;;0
  42;Bus_0007;29;;0;1;;0
  43;Bus_0008;29;;0;11;;0
  44;Bus_0009;29;;0;33;;0
  45;Bus_0010;29;;0;33;;0
  46;Bus_0011;29;;0;33;;0
  47;Bus_0012;29;;0;33;;0
  48;Bus_0013;29;;0;33;;0
  49;Bus_0014;29;;0;33;;0


$$ElmTr2;ID(a:40);loc_name(a:40);fold_id(p);typ_id(p);outserv(i);nntap(i);sernum(a:20);constr(i);chr_name(a:20)
********************************************************************************
*  2-Winding Transformer
*
*  ID: Unique identifier for DGS file
*  loc_name: Name
*  fold_id: In Folder
*  typ_id: Type in TypTr2
*  outserv: Out of Service
*  nntap: Tap Changer 1: Tap Position
*  sernum: Serial Number
*  constr: Year of Construction
*  chr_name: Characteristic Name
********************************************************************************
  50;Trf_0004_0007;29;308;0;-1;;0;
  51;Trf_0004_0009;29;309;0;-1;;0;
  52;Trf_0005_0006;29;310;0;-1;;0;
  53;Trf_0007_0008;29;311;0;0;;0;
  54;Trf_0007_0009;29;312;0;0;;0;


$$ElmTr3;ID(a:40);loc_name(a:40);fold_id(p);typ_id(p);outserv(i);nt3nm(i);n3tap_h(i);n3tap_m(i);n3tap_l(i);chr_name(a:20)
********************************************************************************
*  3-Winding Transformer
*
*  ID: Unique identifier for DGS file
*  loc_name: Name
*  fold_id: In Folder
*  typ_id: Type in TypTr3
*  outserv: Out of Service
*  nt3nm: Number of: parallel Transformers
*  n3tap_h: Tap HV-Side: Act. Position
*  n3tap_m: Tap MV-Side: Act. Position
*  n3tap_l: Tap LV-Side: Act. Position
*  chr_name: Characteristic Name
********************************************************************************
  55;3-Winding Transformer;29;;0;1;0;0;0;


$$IntGrf;ID(a:40);loc_name(a:40);fold_id(p);iCol(i);iVis(i);iLevel(i);rCenterX(r);rCenterY(r);sSymNam(a:40);pDataObj(p);iRot(i);rSizeX(r);rSizeY(r)
********************************************************************************
*  Graphical Net Object
*
*  ID: Unique identifier for DGS file
*  loc_name: Name
*  fold_id: In Folder
*  iCol: Colour
*  iVis: Visible
*  iLevel: Layer
*  rCenterX: X-Position
*  rCenterY: Y-Position
*  sSymNam: Symbol Name
*  pDataObj: Net Data Object in Elm*,Sta*,Blk*,RelFuse,IntGrfnet
*  iRot: Rotation
*  rSizeX: X-Size
*  rSizeY: Y-Size
********************************************************************************
  56;ColLeg;172;1;1;1;18.86027;93.57041;__COLGRAF__;;0;0.6;0.6
  57;Graphical Net Object10;172;1;1;1;363.125;181.5625;ShortTermStrip;43;270;1.5;1
  58;Graphical Net Object11;172;1;1;1;330.3125;196.875;ShortTermStrip;44;0;5.500004;1
  59;Graphical Net Object12;172;1;1;1;284.375;214.375;ShortTermStrip;45;0;1.999999;1
  60;Graphical Net Object13;172;1;1;1;249.375;223.125;ShortTermStrip;46;0;1.999999;1
  61;Graphical Net Object14;172;1;1;1;148.75;240.625;ShortTermStrip;47;0;1.999999;1
  62;Graphical Net Object15;172;1;1;1;205.625;266.875;ShortTermStrip;48;0;2.999999;1
  63;Graphical Net Object16;172;1;1;1;275.625;245;ShortTermStrip;49;0;1.999999;1
  64;Graphical Net Object17;172;1;1;1;59.06251;142.1875;d_lin;2;49;1;1
  65;Graphical Net Object18;172;1;1;1;218.75;76.5625;d_lin;5;84;1;1
  66;Graphical Net Object19;172;1;1;1;157.5;118.125;d_lin;7;95;1;1
  67;Graphical Net Object20;172;1;1;1;218.75;118.125;d_lin;6;95;1;1
  68;Graphical Net Object21;172;1;1;1;328.125;96.25;d_lin;8;180;1;1
  69;Graphical Net Object22;172;1;1;1;262.5;126.875;d_lin;9;95;1;1
  70;Graphical Net Object23;172;1;1;1;120.3125;153.125;d_lin;4;77;1;1
  71;Graphical Net Object24;172;1;1;1;168.4375;214.375;d_lin;11;241;1;1
  72;Graphical Net Object25;172;1;1;1;179.375;242.8125;d_lin;16;131;1;1
  73;Graphical Net Object26;172;1;1;1;205.6252;227.5004;d_lin;12;0;1;1
  74;Graphical Net Object27;172;1;1;1;242.8125;247.1875;d_lin;17;69;1;1
  75;Graphical Net Object28;172;1;1;1;304.0625;227.5;d_lin;14;70;1;1
  76;Graphical Net Object29;172;1;1;1;299.6875;203.4375;d_lin;13;259;1;1
  77;Graphical Net Object3;172;1;1;1;35;188.125;ShortTermStrip;36;0;3;1
  78;Graphical Net Object30;172;1;1;1;266.875;207.8125;d_lin;15;81;1;1
  79;Graphical Net Object31;172;1;1;1;229.6875;207.8125;d_lin;10;293;1;1
  80;Graphical Net Object32;172;1;1;1;310.625;170.625;d_tr2;51;180;1;1
  81;Graphical Net Object33;172;1;1;1;336.875;155.3125;d_tr2;50;0;1;1
  82;Graphical Net Object34;172;1;1;1;345.625;183.75;d_tr2;53;90;1;1
  83;Graphical Net Object35;172;1;1;1;332.5;183.75;d_tr2;54;0;1;1
  84;Graphical Net Object36;172;1;1;1;205.625;170.625;d_tr2;52;0;1;1
  85;Graphical Net Object37;172;1;1;1;371.875;126.875;d_load;20;90;1;1
  86;Graphical Net Object38;172;1;1;1;170.625;166.25;d_load;21;270;1;1
  87;Graphical Net Object39;172;1;1;1;245;201.25;d_load;22;90;1;1
  88;Graphical Net Object4;172;1;1;1;105;100.625;ShortTermStrip;37;0;3.999999;1
  89;Graphical Net Object40;172;1;1;1;284.375;227.5;d_load;24;180;1;1
  90;Graphical Net Object41;172;1;1;1;249.375;236.25;d_load;25;180;1;1
  91;Graphical Net Object42;172;1;1;1;148.75;258.125;d_load;26;180;1;1
  92;Graphical Net Object43;172;1;1;1;205.625;284.375;d_load;27;180;1;1
  93;Graphical Net Object44;172;1;1;1;275.625;262.5;d_load;28;180;1;1
  94;Graphical Net Object45;172;1;1;1;56.875;87.5;d_load;18;270;1;1
  95;Graphical Net Object46;172;1;1;1;354.375;210;d_load;23;90;1;1
  96;Graphical Net Object47;172;1;1;1;380.625;179.375;d_symg;35;90;1;1
  97;Graphical Net Object48;172;1;1;1;153.125;175;d_symg;34;270;1;1
  98;Graphical Net Object49;172;1;1;1;39.375;205.625;d_symg;31;180;1;1
  99;Graphical Net Object5;172;1;1;1;323.75;52.5;ShortTermStrip;38;0;2;1
  100;Graphical Net Object50;172;1;1;1;105;83.125;d_symg;32;0;1;1
  101;Graphical Net Object51;172;1;1;1;319.375;39.375;d_symg;33;0;1;1
  102;Graphical Net Object52;172;1;1;1;358.75;39.375;d_load;19;90;1;1
  103;Graphical Net Object53;172;1;1;1;341.25;210;d_shunt;30;180;1;1
  104;Graphical Net Object54;172;1;1;1;332.5;168.4375;d_tr3;55;0;1;1
  105;Graphical Net Object55;172;1;1;1;67.8125;142.1875;d_lin;3;49;1;1
  106;Graphical Net Object6;172;1;1;1;323.75;140;ShortTermStrip;39;0;4.000002;1
  107;Graphical Net Object7;172;1;1;1;205.625;153.125;ShortTermStrip;40;0;3.000002;1
  108;Graphical Net Object8;172;1;1;1;207.8125;188.125;ShortTermStrip;41;0;4.500001;1
  109;Graphical Net Object9;172;1;1;1;334.6875;170.625;ShortTermStrip;42;0;1.5;1


$$IntGrfcon;ID(a:40);loc_name(a:40);fold_id(p);rX:SIZEROW(i);rX:0(r);rX:1(r);rX:2(r);rX:3(r);rY:SIZEROW(i);rY:0(r);rY:1(r);rY:2(r);rY:3(r)
********************************************************************************
*  GCO
*
*  ID: Unique identifier for DGS file
*  loc_name: Name
*  fold_id: In Folder
*  rX:SIZEROW: Number of rows for attribute 'rX'
*  rX: X in mm
*  rY:SIZEROW: Number of rows for attribute 'rY'
*  rY: Y in mm
********************************************************************************
  110;GCO_1;64;3;59.06251;26.25;26.25;;3;142.1875;170.625;188.125;
  111;GCO_2;64;3;59.06251;91.87501;91.87501;;3;142.1875;113.75;100.625;
  112;GCO_1;65;3;218.75;319.375;319.375;;3;76.5625;65.625;52.5;
  113;GCO_2;65;3;218.75;118.125;118.125;;3;76.5625;87.5;100.625;
  114;GCO_1;66;3;157.5;205.625;205.625;;3;118.125;122.5;153.125;
  115;GCO_2;66;3;157.5;109.375;109.375;;3;118.125;113.75;100.625;
  116;GCO_1;67;3;218.75;319.375;319.375;;3;118.125;126.875;140;
  117;GCO_2;67;3;218.75;118.125;118.125;;3;118.125;109.375;100.625;
  118;GCO_1;68;2;328.125;328.125;;;2;96.25;52.49999;;
  119;GCO_2;68;2;328.125;328.125;;;2;96.25;140;;
  120;GCO_1;69;3;262.5;310.625;310.625;;3;126.875;131.25;140;
  121;GCO_2;69;3;262.5;214.375;214.375;;3;126.875;122.5;153.125;
  122;GCO_1;70;3;120.3125;43.75;43.75;;3;153.125;170.625;188.125;
  123;GCO_2;70;3;120.3125;196.875;196.875;;3;153.125;135.625;153.125;
  124;GCO_1;71;3;168.4375;192.5;192.5;;3;214.375;201.25;188.125;
  125;GCO_2;71;3;168.4375;144.375;144.375;;3;214.375;227.5;240.625;
  126;GCO_1;72;3;179.375;196.875;196.875;;3;242.8125;258.125;266.875;
  127;GCO_2;72;4;179.375;161.875;153.125;153.125;4;242.8125;227.5;227.5;240.625
  128;GCO_1;73;2;205.6252;205.625;;;2;227.5004;266.875;;
  129;GCO_2;73;2;205.6252;205.625;;;2;227.5004;188.125;;
  130;GCO_1;74;3;242.8125;271.25;271.25;;3;247.1875;236.25;245;
  131;GCO_2;74;3;242.8125;214.375;214.375;;3;247.1875;258.125;266.875;
  132;GCO_1;75;3;304.0625;328.125;328.125;;3;227.5;218.75;196.875;
  133;GCO_2;75;3;304.0625;280;280;;3;227.5;236.25;245;
  134;GCO_1;76;3;299.6875;310.625;310.625;;3;203.4375;201.25;196.875;
  135;GCO_2;76;3;299.6875;288.75;288.75;;3;203.4375;205.625;214.375;
  136;GCO_1;78;3;266.875;280;280;;3;207.8125;205.625;214.375;
  137;GCO_2;78;3;266.875;253.75;253.75;;3;207.8125;210;223.125;
  138;GCO_1;79;3;229.6875;214.375;214.375;;3;207.8125;201.25;188.125;
  139;GCO_2;79;3;229.6875;245;245;;3;207.8125;214.375;223.125;
  140;GCO_1;80;2;310.625;310.625;;;2;166.25;140;;
  141;GCO_2;80;2;310.625;310.6251;;;2;175;196.875;;
  142;GCO_1;81;2;336.875;336.875;;;2;150.9375;140;;
  143;GCO_2;81;2;336.875;336.875;;;2;159.6875;170.625;;
  144;GCO_1;82;2;341.25;341.25;;;2;183.75;170.625;;
  145;GCO_2;82;2;350;363.125;;;2;183.75;183.75;;
  146;GCO_1;83;2;332.5;332.5;;;2;179.375;170.625;;
  147;GCO_2;83;2;332.5;332.5;;;2;188.125;196.875;;
  148;GCO_1;84;2;205.625;205.625;;;2;166.25;153.125;;
  149;GCO_2;84;2;205.625;205.625;;;2;175;188.125;;
  150;GCO_1;85;3;367.5;336.875;336.875;;3;126.875;126.875;140;
  151;GCO_1;86;3;175;196.875;196.875;;3;166.25;166.25;153.125;
  152;GCO_1;87;3;240.625;223.125;223.125;;3;201.25;201.25;188.125;
  153;GCO_1;89;2;284.375;284.375;;;2;223.125;214.375;;
  154;GCO_1;90;2;249.375;249.375;;;2;231.875;223.125;;
  155;GCO_1;91;2;148.75;148.75;;;2;253.75;240.625;;
  156;GCO_1;92;2;205.625;205.625;;;2;280;266.875;;
  157;GCO_1;93;2;275.625;275.625;;;2;258.125;245;;
  158;GCO_1;94;3;61.25;91.87501;91.87501;;3;87.5;87.5;100.625;
  159;GCO_1;95;2;350;350;;;2;210;196.875;;
  160;GCO_1;96;2;376.25;363.125;;;2;179.375;179.375;;
  161;GCO_1;97;3;157.5;192.5;192.5;;3;175;175;188.125;
  162;GCO_1;98;2;39.375;39.375;;;2;201.25;188.125;;
  163;GCO_1;100;2;105;105;;;2;87.5;100.625;;
  164;GCO_1;101;2;319.375;319.375;;;2;43.75;52.5;;
  165;GCO_1;102;3;354.375;328.125;328.125;;3;39.375;39.375;52.5;
  166;GCO_1;103;2;341.25;341.25;;;2;205.625;196.875;;
  167;GCO_1;104;2;332.5;332.5;;;2;172.8125;196.875;;
  168;GCO_2;104;2;328.125;328.125;;;2;164.0625;140;;
  169;GCO_3;104;4;336.875;350;350;363.125;4;164.0625;164.0625;179.375;179.375
  170;GCO_1;105;3;67.8125;35;35;;3;142.1875;170.625;188.125;
  171;GCO_2;105;3;67.8125;100.625;100.625;;3;142.1875;113.75;100.625;


$$IntGrfnet;ID(a:40);loc_name(a:40);fold_id(p);snap_on(i);grid_on(i);ortho_on(i)
********************************************************************************
*  Graphic
*
*  ID: Unique identifier for DGS file
*  loc_name: Name
*  fold_id: In Folder
*  snap_on: Drawing Tools: Snap
*  grid_on: Drawing Tools: Grid
*  ortho_on: Drawing Tools: Ortho Type:
********************************************************************************
  172;14 Bus System;;1;1;2


$$StaCubic;ID(a:40);loc_name(a:40);fold_id(p);chr_name(a:20);obj_bus(i);obj_id(p)
********************************************************************************
*  Cubicle
*
*  ID: Unique identifier for DGS file
*  loc_name: Name
*  fold_id: In Folder
*  chr_name: Characteristic Name
*  obj_bus: Bus Index
*  obj_id: Connected with in Elm*
********************************************************************************
  173;Cub_1(1);36;;0;3
  174;Cub_1;36;;0;2
  175;Cub_2;36;;0;4
  176;Cub_3;36;;0;31
  177;Cub_1(1);37;;1;3
  178;Cub_1;37;;1;2
  179;Cub_2;37;;0;5
  180;Cub_3;37;;0;7
  181;Cub_4;37;;0;6
  182;Cub_5;37;;0;18
  183;Cub_6;37;;0;32
  184;Cub_1;38;;1;5
  185;Cub_2;38;;0;8
  186;Cub_3;38;;0;33
  187;Cub_4;38;;0;19
  188;Cub_1;39;;1;6
  189;Cub_2;39;;1;8
  190;Cub_3;39;;1;9
  191;Cub_4;39;;0;51
  192;Cub_5;39;;0;50
  193;Cub_6;39;;0;20
  194;Cub_1;40;;1;7
  195;Cub_2;40;;0;9
  196;Cub_3;40;;1;4
  197;Cub_4;40;;0;52
  198;Cub_5;40;;0;21
  199;Cub_1;41;;0;11
  200;Cub_2;41;;1;12
  201;Cub_3;41;;1;10
  202;Cub_4;41;;1;52
  203;Cub_5;41;;0;22
  204;Cub_6;41;;0;34
  205;Cub_1;42;;1;50
  206;Cub_2;42;;0;53
  207;Cub_3;42;;0;54
  208;Cub_1;43;;1;53
  209;Cub_2;43;;0;35
  210;Cub_1;44;;1;14
  211;Cub_2;44;;0;13
  212;Cub_3;44;;1;51
  213;Cub_4;44;;1;54
  214;Cub_5;44;;0;23
  215;Cub_6;44;;0;30
  216;Cub_1;45;;1;13
  217;Cub_2;45;;0;15
  218;Cub_3;45;;0;24
  219;Cub_1;46;;1;15
  220;Cub_2;46;;0;10
  221;Cub_3;46;;0;25
  222;Cub_1;47;;1;11
  223;Cub_2;47;;0;16
  224;Cub_3;47;;0;26
  225;Cub_1;48;;1;16
  226;Cub_2;48;;0;12
  227;Cub_3;48;;0;17
  228;Cub_4;48;;0;27
  229;Cub_1;49;;1;17
  230;Cub_2;49;;0;14
  231;Cub_3;49;;0;28


$$StaSwitch;ID(a:40);loc_name(a:40);fold_id(p);on_off(i);typ_id(p);iUse(i)
********************************************************************************
*  Switch
*
*  ID: Unique identifier for DGS file
*  loc_name: Name
*  fold_id: in Cubicle
*  on_off: Closed
*  typ_id: Type in TypSwitch
*  iUse: Type of Usage
********************************************************************************
  232;Switch;173;1;;1
  233;Switch;174;1;;1
  234;Switch;175;1;;1
  235;Switch;176;1;;1
  236;Switch;177;1;;1
  237;Switch;178;1;;1
  238;Switch;179;1;;1
  239;Switch;180;1;;1
  240;Switch;181;1;;1
  241;Switch;182;1;;1
  242;Switch;183;1;;1
  243;Switch;184;1;;1
  244;Switch;185;1;;1
  245;Switch;186;1;;1
  246;Switch;187;1;;1
  247;Switch;188;1;;1
  248;Switch;189;1;;1
  249;Switch;190;1;;1
  250;Switch;191;1;;1
  251;Switch;192;1;;1
  252;Switch;193;1;;1
  253;Switch;194;1;;1
  254;Switch;195;1;;1
  255;Switch;196;1;;1
  256;Switch;197;1;;1
  257;Switch;198;1;;1
  258;Switch;199;1;;1
  259;Switch;200;1;;1
  260;Switch;201;1;;1
  261;Switch;202;1;;1
  262;Switch;203;1;;1
  263;Switch;204;1;;1
  264;Switch;208;1;;1
  265;Switch;209;1;;1
  266;Switch;210;1;;1
  267;Switch;211;1;;1
  268;Switch;212;1;;1
  269;Switch;213;1;;1
  270;Switch;214;1;;1
  271;Switch;215;1;;1
  272;Switch;216;1;;1
  273;Switch;217;1;;1
  274;Switch;218;1;;1
  275;Switch;219;1;;1
  276;Switch;220;1;;1
  277;Switch;221;1;;1
  278;Switch;222;1;;1
  279;Switch;223;1;;1
  280;Switch;224;1;;1
  281;Switch;225;1;;1
  282;Switch;226;1;;1
  283;Switch;227;1;;1
  284;Switch;228;1;;1
  285;Switch;229;1;;1
  286;Switch;230;1;;1
  287;Switch;231;1;;1


$$TypLne;ID(a:40);loc_name(a:40);fold_id(p);uline(r);sline(r);aohl_(a:3);rline(r);xline(r);cline(r);rline0(r);xline0(r);cline0(r);rtemp(r);Ithr(r);chr_name(a:20)
********************************************************************************
*  Line Type
*
*  ID: Unique identifier for DGS file
*  loc_name: Name
*  fold_id: In Folder
*  uline: Rated Voltage in kV
*  sline: Rated Current in kA
*  aohl_: Cable / OHL
*  rline: Parameters per Length 1,2-Sequence: AC-Resistance R'(20�C) in Ohm/km
*  xline: Parameters per Length 1,2-Sequence: Reactance X' in Ohm/km
*  cline: Parameters per Length 1,2-Sequence: Capacitance C' in uF/km
*  rline0: Parameters per Length Zero Sequence: AC-Resistance R0' in Ohm/km
*  xline0: Parameters per Length Zero Sequence: Reactance X0' in Ohm/km
*  cline0: Parameters per Length Zero Sequence: Capacitance C0' in uF/km
*  rtemp: Max. End Temperature in degC
*  Ithr: Rated Short-Time (1s) Current (Conductor) in kA
*  chr_name: Characteristic Name
********************************************************************************
  288;TypLne 0001 to 0002;;132;1;ohl;6.753542;20.61956;0.482287;0;0;0;80;0;
  289;TypLne 0001 to 0005;;132;1;ohl;9.414187;38.8625;0.898808;0;0;0;80;0;
  290;TypLne 0002 to 0003;;132;1;ohl;8.187537;34.49428;0.800159;0;0;0;80;0;
  291;TypLne 0002 to 0004;;132;1;ohl;10.12509;30.722;0.683241;0;0;0;80;0;
  292;TypLne 0002 to 0005;;132;1;ohl;9.922968;30.29685;0.621128;0;0;0;80;0;
  293;TypLne 0003 to 0004;;132;1;ohl;11.67582;29.80027;0.632089;0;0;0;80;0;
  294;TypLne 0004 to 0005;;132;1;ohl;2.326104;7.337246;0.233836;0;0;0;80;0;
  295;TypLne 0006 to 0011;;33;1;ohl;1.034332;2.166021;0;0;0;0;80;0;
  296;TypLne 0006 to 0012;;33;1;ohl;1.33849;2.785771;0;0;0;0;80;0;
  297;TypLne 0006 to 0013;;33;1;ohl;0.720373;1.41864;0;0;0;0;80;0;
  298;TypLne 0009 to 0010;;33;1;ohl;0.346410;0.920205;0;0;0;0;80;0;
  299;TypLne 0009 to 0014;;33;1;ohl;1.384228;2.944439;0;0;0;0;80;0;
  300;TypLne 0010 to 0011;;33;1;ohl;0.893524;2.091643;0;0;0;0;80;0;
  301;TypLne 0012 to 0013;;33;1;ohl;2.405819;2.176693;0;0;0;0;80;0;
  302;TypLne 0013 to 0014;;33;1;ohl;1.861428;3.789938;0;0;0;0;80;0;


$$TypSym;ID(a:40);loc_name(a:40);fold_id(p);sgn(r);ugn(r);cosn(r);xd(r);xq(r);xdsss(r);rstr(r);xdsat(r);satur(i)
********************************************************************************
*  Synchronous Machine Type
*
*  ID: Unique identifier for DGS file
*  loc_name: Name
*  fold_id: In Folder
*  sgn: Nominal Apparent Power in MVA
*  ugn: Nominal Voltage in kV
*  cosn: Power Factor
*  xd: Synchronous Reactances: xd in p.u.
*  xq: Synchronous Reactances: xq in p.u.
*  xdsss: Subtransient Reactance: saturated value xd''sat in p.u.
*  rstr: Stator Resistance: rstr in p.u.
*  xdsat: For single fed short-circuit: Reciprocal of short-circuit ratio (xdsat) in p.u.
*  satur: For single fed short-circuit: Machine Type IEC909/IEC60909
********************************************************************************
  303;TypSym_0001;;400;132;0.8;2;2;0.2;0;1.2;0
  304;TypSym_0002;;100;132;0.8;2;2;0.2;0;1.2;0
  305;TypSym_0003;;100;132;1;2;2;0.2;0;1.2;0
  306;TypSym_0006;;100;33;1;2;2;0.2;0;1.2;0
  307;TypSym_0008;;100;11;1;2;2;0.2;0;1.2;0


$$TypTr2;ID(a:40);loc_name(a:40);fold_id(p);strn(r);frnom(r);utrn_h(r);utrn_l(r);uktr(r);pcutr(r);uk0tr(r);ur0tr(r);tr2cn_h(a:2);tr2cn_l(a:2);nt2ag(r);curmg(r);pfe(r);zx0hl_n(r);tap_side(i);dutap(r);phitr(r);nntap0(i);ntpmn(i);ntpmx(i);manuf(a:20);chr_name(a:20)
********************************************************************************
*  2-Winding Transformer Type
*
*  ID: Unique identifier for DGS file
*  loc_name: Name
*  fold_id: In Folder
*  strn: Rated Power in MVA
*  frnom: Nominal Frequency in Hz
*  utrn_h: Rated Voltage: HV-Side in kV
*  utrn_l: Rated Voltage: LV-Side in kV
*  uktr: Positive Sequence Impedance: Short-Circuit Voltage uk in %
*  pcutr: Positive Sequence Impedance: Copper Losses in kW
*  uk0tr: Zero Sequence Impedance: Short-Circuit Voltage uk0 in %
*  ur0tr: Zero Sequence Impedance: SHC-Voltage (Re(uk0)) uk0r in %
*  tr2cn_h: Vector Group: HV-Side:Y :YN:Z :ZN:D
*  tr2cn_l: Vector Group: LV-Side:Y :YN:Z :ZN:D
*  nt2ag: Vector Group: Phase Shift in *30deg
*  curmg: Magnetizing Impedance: No Load Current in %
*  pfe: Magnetizing Impedance: No Load Losses in kW
*  zx0hl_n: Zero Sequence Magnetizing Impedance: Mag. Impedance/uk0
*  tap_side: Tap Changer 1: at Side:HV:LV
*  dutap: Tap Changer 1: Additional Voltage per Tap in %
*  phitr: Tap Changer 1: Phase of du in deg
*  nntap0: Tap Changer 1: Neutral Position
*  ntpmn: Tap Changer 1: Minimum Position
*  ntpmx: Tap Changer 1: Maximum Position
*  manuf: Manufacturer
*  chr_name: Characteristic Name
********************************************************************************
  308;TypTr2 0004 to 0007;;100;60;132;1;20.912;0;0;0;YN;YN;0;0;0;100;0;2.2;0;0;-1;1;;
  309;TypTr2 0004 to 0009;;100;60;132;33;55.618;0;0;0;YN;YN;0;0;0;100;0;3.1;0;0;-1;1;;
  310;TypTr2 0005 to 0006;;100;60;132;33;25.202;0;0;0;YN;YN;0;0;0;100;0;6.8;0;0;-1;1;;
  311;TypTr2 0007 to 0008;;100;60;1;11;17.615;0;0;0;YN;YN;0;0;0;100;0;100;0;0;-1;1;;
  312;TypTr2 0007 to 0009;;100;60;1;33;11.001;0;0;0;YN;YN;0;0;0;100;0;100;0;0;-1;1;;
